<?xml version="1.0" encoding="UTF-8" standalone="yes"?>
<template encoding-version="1.3">
    <description></description>
    <groupId>0cd5cdde-0197-1000-5972-00248c8b3468</groupId>
    <name>data_acquisition_and_ingestion_flow</name>
    <snippet>
        <connections>
            <id>01755dc5-7aac-3682-0000-000000000000</id>
            <parentGroupId>3170e7ec-7aaf-312d-0000-000000000000</parentGroupId>
            <backPressureDataSizeThreshold>1 GB</backPressureDataSizeThreshold>
            <backPressureObjectThreshold>10000</backPressureObjectThreshold>
            <destination>
                <groupId>3170e7ec-7aaf-312d-0000-000000000000</groupId>
                <id>382835a7-fffe-3e98-0000-000000000000</id>
                <type>PROCESSOR</type>
            </destination>
            <flowFileExpiration>0 sec</flowFileExpiration>
            <labelIndex>1</labelIndex>
            <loadBalanceCompression>DO_NOT_COMPRESS</loadBalanceCompression>
            <loadBalancePartitionAttribute></loadBalancePartitionAttribute>
            <loadBalanceStatus>LOAD_BALANCE_NOT_CONFIGURED</loadBalanceStatus>
            <loadBalanceStrategy>DO_NOT_LOAD_BALANCE</loadBalanceStrategy>
            <name></name>
            <selectedRelationships>success</selectedRelationships>
            <source>
                <groupId>3170e7ec-7aaf-312d-0000-000000000000</groupId>
                <id>bb0cc4ec-688f-3b30-0000-000000000000</id>
                <type>PROCESSOR</type>
            </source>
            <zIndex>0</zIndex>
        </connections>
        <connections>
            <id>11075e3c-8071-3f84-0000-000000000000</id>
            <parentGroupId>3170e7ec-7aaf-312d-0000-000000000000</parentGroupId>
            <backPressureDataSizeThreshold>1 GB</backPressureDataSizeThreshold>
            <backPressureObjectThreshold>10000</backPressureObjectThreshold>
            <destination>
                <groupId>3170e7ec-7aaf-312d-0000-000000000000</groupId>
                <id>073519de-f8a5-3f82-0000-000000000000</id>
                <type>PROCESSOR</type>
            </destination>
            <flowFileExpiration>0 sec</flowFileExpiration>
            <labelIndex>1</labelIndex>
            <loadBalanceCompression>DO_NOT_COMPRESS</loadBalanceCompression>
            <loadBalancePartitionAttribute></loadBalancePartitionAttribute>
            <loadBalanceStatus>LOAD_BALANCE_NOT_CONFIGURED</loadBalanceStatus>
            <loadBalanceStrategy>DO_NOT_LOAD_BALANCE</loadBalanceStrategy>
            <name></name>
            <selectedRelationships>Response</selectedRelationships>
            <source>
                <groupId>3170e7ec-7aaf-312d-0000-000000000000</groupId>
                <id>70ae378b-916c-3a6a-0000-000000000000</id>
                <type>PROCESSOR</type>
            </source>
            <zIndex>0</zIndex>
        </connections>
        <connections>
            <id>192e4cf1-b5d6-3860-0000-000000000000</id>
            <parentGroupId>3170e7ec-7aaf-312d-0000-000000000000</parentGroupId>
            <backPressureDataSizeThreshold>1 GB</backPressureDataSizeThreshold>
            <backPressureObjectThreshold>10000</backPressureObjectThreshold>
            <destination>
                <groupId>3170e7ec-7aaf-312d-0000-000000000000</groupId>
                <id>a7db6170-1e7c-327b-0000-000000000000</id>
                <type>PROCESSOR</type>
            </destination>
            <flowFileExpiration>0 sec</flowFileExpiration>
            <labelIndex>1</labelIndex>
            <loadBalanceCompression>DO_NOT_COMPRESS</loadBalanceCompression>
            <loadBalancePartitionAttribute></loadBalancePartitionAttribute>
            <loadBalanceStatus>LOAD_BALANCE_NOT_CONFIGURED</loadBalanceStatus>
            <loadBalanceStrategy>DO_NOT_LOAD_BALANCE</loadBalanceStrategy>
            <name></name>
            <selectedRelationships>success</selectedRelationships>
            <source>
                <groupId>3170e7ec-7aaf-312d-0000-000000000000</groupId>
                <id>26e4f1d8-faaf-3492-0000-000000000000</id>
                <type>PROCESSOR</type>
            </source>
            <zIndex>0</zIndex>
        </connections>
        <connections>
            <id>1f0dbb6b-5a1d-3b5e-0000-000000000000</id>
            <parentGroupId>3170e7ec-7aaf-312d-0000-000000000000</parentGroupId>
            <backPressureDataSizeThreshold>1 GB</backPressureDataSizeThreshold>
            <backPressureObjectThreshold>10000</backPressureObjectThreshold>
            <destination>
                <groupId>3170e7ec-7aaf-312d-0000-000000000000</groupId>
                <id>2172debd-34bb-3e29-0000-000000000000</id>
                <type>PROCESSOR</type>
            </destination>
            <flowFileExpiration>0 sec</flowFileExpiration>
            <labelIndex>1</labelIndex>
            <loadBalanceCompression>DO_NOT_COMPRESS</loadBalanceCompression>
            <loadBalancePartitionAttribute></loadBalancePartitionAttribute>
            <loadBalanceStatus>LOAD_BALANCE_NOT_CONFIGURED</loadBalanceStatus>
            <loadBalanceStrategy>DO_NOT_LOAD_BALANCE</loadBalanceStrategy>
            <name></name>
            <selectedRelationships>success</selectedRelationships>
            <source>
                <groupId>3170e7ec-7aaf-312d-0000-000000000000</groupId>
                <id>ddc68a89-70b6-3644-0000-000000000000</id>
                <type>PROCESSOR</type>
            </source>
            <zIndex>0</zIndex>
        </connections>
        <connections>
            <id>2d48245a-b5e5-37f7-0000-000000000000</id>
            <parentGroupId>3170e7ec-7aaf-312d-0000-000000000000</parentGroupId>
            <backPressureDataSizeThreshold>1 GB</backPressureDataSizeThreshold>
            <backPressureObjectThreshold>10000</backPressureObjectThreshold>
            <destination>
                <groupId>3170e7ec-7aaf-312d-0000-000000000000</groupId>
                <id>a7db6170-1e7c-327b-0000-000000000000</id>
                <type>PROCESSOR</type>
            </destination>
            <flowFileExpiration>0 sec</flowFileExpiration>
            <labelIndex>1</labelIndex>
            <loadBalanceCompression>DO_NOT_COMPRESS</loadBalanceCompression>
            <loadBalancePartitionAttribute></loadBalancePartitionAttribute>
            <loadBalanceStatus>LOAD_BALANCE_NOT_CONFIGURED</loadBalanceStatus>
            <loadBalanceStrategy>DO_NOT_LOAD_BALANCE</loadBalanceStrategy>
            <name></name>
            <selectedRelationships>success</selectedRelationships>
            <source>
                <groupId>3170e7ec-7aaf-312d-0000-000000000000</groupId>
                <id>e4468997-72a9-3176-0000-000000000000</id>
                <type>PROCESSOR</type>
            </source>
            <zIndex>0</zIndex>
        </connections>
        <connections>
            <id>2e184800-1428-3a2f-0000-000000000000</id>
            <parentGroupId>3170e7ec-7aaf-312d-0000-000000000000</parentGroupId>
            <backPressureDataSizeThreshold>1 GB</backPressureDataSizeThreshold>
            <backPressureObjectThreshold>10000</backPressureObjectThreshold>
            <destination>
                <groupId>3170e7ec-7aaf-312d-0000-000000000000</groupId>
                <id>26e4f1d8-faaf-3492-0000-000000000000</id>
                <type>PROCESSOR</type>
            </destination>
            <flowFileExpiration>0 sec</flowFileExpiration>
            <labelIndex>1</labelIndex>
            <loadBalanceCompression>DO_NOT_COMPRESS</loadBalanceCompression>
            <loadBalancePartitionAttribute></loadBalancePartitionAttribute>
            <loadBalanceStatus>LOAD_BALANCE_NOT_CONFIGURED</loadBalanceStatus>
            <loadBalanceStrategy>DO_NOT_LOAD_BALANCE</loadBalanceStrategy>
            <name></name>
            <selectedRelationships>success</selectedRelationships>
            <source>
                <groupId>3170e7ec-7aaf-312d-0000-000000000000</groupId>
                <id>9f9aa34e-e7ad-3cbd-0000-000000000000</id>
                <type>PROCESSOR</type>
            </source>
            <zIndex>0</zIndex>
        </connections>
        <connections>
            <id>3383e871-926f-3afb-0000-000000000000</id>
            <parentGroupId>3170e7ec-7aaf-312d-0000-000000000000</parentGroupId>
            <backPressureDataSizeThreshold>1 GB</backPressureDataSizeThreshold>
            <backPressureObjectThreshold>10000</backPressureObjectThreshold>
            <destination>
                <groupId>3170e7ec-7aaf-312d-0000-000000000000</groupId>
                <id>382835a7-fffe-3e98-0000-000000000000</id>
                <type>PROCESSOR</type>
            </destination>
            <flowFileExpiration>0 sec</flowFileExpiration>
            <labelIndex>1</labelIndex>
            <loadBalanceCompression>DO_NOT_COMPRESS</loadBalanceCompression>
            <loadBalancePartitionAttribute></loadBalancePartitionAttribute>
            <loadBalanceStatus>LOAD_BALANCE_NOT_CONFIGURED</loadBalanceStatus>
            <loadBalanceStrategy>DO_NOT_LOAD_BALANCE</loadBalanceStrategy>
            <name></name>
            <selectedRelationships>success</selectedRelationships>
            <source>
                <groupId>3170e7ec-7aaf-312d-0000-000000000000</groupId>
                <id>7a66690f-d2b9-3a5b-0000-000000000000</id>
                <type>PROCESSOR</type>
            </source>
            <zIndex>0</zIndex>
        </connections>
        <connections>
            <id>34dffd34-f679-3d33-0000-000000000000</id>
            <parentGroupId>3170e7ec-7aaf-312d-0000-000000000000</parentGroupId>
            <backPressureDataSizeThreshold>1 GB</backPressureDataSizeThreshold>
            <backPressureObjectThreshold>10000</backPressureObjectThreshold>
            <destination>
                <groupId>3170e7ec-7aaf-312d-0000-000000000000</groupId>
                <id>bb0cc4ec-688f-3b30-0000-000000000000</id>
                <type>PROCESSOR</type>
            </destination>
            <flowFileExpiration>0 sec</flowFileExpiration>
            <labelIndex>1</labelIndex>
            <loadBalanceCompression>DO_NOT_COMPRESS</loadBalanceCompression>
            <loadBalancePartitionAttribute></loadBalancePartitionAttribute>
            <loadBalanceStatus>LOAD_BALANCE_NOT_CONFIGURED</loadBalanceStatus>
            <loadBalanceStrategy>DO_NOT_LOAD_BALANCE</loadBalanceStrategy>
            <name></name>
            <selectedRelationships>italy</selectedRelationships>
            <source>
                <groupId>3170e7ec-7aaf-312d-0000-000000000000</groupId>
                <id>6427b918-c3ea-3f32-0000-000000000000</id>
                <type>PROCESSOR</type>
            </source>
            <zIndex>0</zIndex>
        </connections>
        <connections>
            <id>5685ec9c-afae-3d62-0000-000000000000</id>
            <parentGroupId>3170e7ec-7aaf-312d-0000-000000000000</parentGroupId>
            <backPressureDataSizeThreshold>1 GB</backPressureDataSizeThreshold>
            <backPressureObjectThreshold>10000</backPressureObjectThreshold>
            <destination>
                <groupId>3170e7ec-7aaf-312d-0000-000000000000</groupId>
                <id>e4468997-72a9-3176-0000-000000000000</id>
                <type>PROCESSOR</type>
            </destination>
            <flowFileExpiration>0 sec</flowFileExpiration>
            <labelIndex>1</labelIndex>
            <loadBalanceCompression>DO_NOT_COMPRESS</loadBalanceCompression>
            <loadBalancePartitionAttribute></loadBalancePartitionAttribute>
            <loadBalanceStatus>LOAD_BALANCE_NOT_CONFIGURED</loadBalanceStatus>
            <loadBalanceStrategy>DO_NOT_LOAD_BALANCE</loadBalanceStrategy>
            <name></name>
            <selectedRelationships>merged</selectedRelationships>
            <source>
                <groupId>3170e7ec-7aaf-312d-0000-000000000000</groupId>
                <id>382835a7-fffe-3e98-0000-000000000000</id>
                <type>PROCESSOR</type>
            </source>
            <zIndex>0</zIndex>
        </connections>
        <connections>
            <id>580146f0-0a50-324a-0000-000000000000</id>
            <parentGroupId>3170e7ec-7aaf-312d-0000-000000000000</parentGroupId>
            <backPressureDataSizeThreshold>1 GB</backPressureDataSizeThreshold>
            <backPressureObjectThreshold>10000</backPressureObjectThreshold>
            <destination>
                <groupId>3170e7ec-7aaf-312d-0000-000000000000</groupId>
                <id>6427b918-c3ea-3f32-0000-000000000000</id>
                <type>PROCESSOR</type>
            </destination>
            <flowFileExpiration>0 sec</flowFileExpiration>
            <labelIndex>1</labelIndex>
            <loadBalanceCompression>DO_NOT_COMPRESS</loadBalanceCompression>
            <loadBalancePartitionAttribute></loadBalancePartitionAttribute>
            <loadBalanceStatus>LOAD_BALANCE_NOT_CONFIGURED</loadBalanceStatus>
            <loadBalanceStrategy>DO_NOT_LOAD_BALANCE</loadBalanceStrategy>
            <name></name>
            <selectedRelationships>success</selectedRelationships>
            <source>
                <groupId>3170e7ec-7aaf-312d-0000-000000000000</groupId>
                <id>073519de-f8a5-3f82-0000-000000000000</id>
                <type>PROCESSOR</type>
            </source>
            <zIndex>0</zIndex>
        </connections>
        <connections>
            <id>67fec909-261d-3e96-0000-000000000000</id>
            <parentGroupId>3170e7ec-7aaf-312d-0000-000000000000</parentGroupId>
            <backPressureDataSizeThreshold>1 GB</backPressureDataSizeThreshold>
            <backPressureObjectThreshold>10000</backPressureObjectThreshold>
            <destination>
                <groupId>3170e7ec-7aaf-312d-0000-000000000000</groupId>
                <id>9f9aa34e-e7ad-3cbd-0000-000000000000</id>
                <type>PROCESSOR</type>
            </destination>
            <flowFileExpiration>0 sec</flowFileExpiration>
            <labelIndex>1</labelIndex>
            <loadBalanceCompression>DO_NOT_COMPRESS</loadBalanceCompression>
            <loadBalancePartitionAttribute></loadBalancePartitionAttribute>
            <loadBalanceStatus>LOAD_BALANCE_NOT_CONFIGURED</loadBalanceStatus>
            <loadBalanceStrategy>DO_NOT_LOAD_BALANCE</loadBalanceStrategy>
            <name></name>
            <selectedRelationships>merged</selectedRelationships>
            <source>
                <groupId>3170e7ec-7aaf-312d-0000-000000000000</groupId>
                <id>382835a7-fffe-3e98-0000-000000000000</id>
                <type>PROCESSOR</type>
            </source>
            <zIndex>0</zIndex>
        </connections>
        <connections>
            <id>69ea6d31-1f2e-33e0-0000-000000000000</id>
            <parentGroupId>3170e7ec-7aaf-312d-0000-000000000000</parentGroupId>
            <backPressureDataSizeThreshold>1 GB</backPressureDataSizeThreshold>
            <backPressureObjectThreshold>10000</backPressureObjectThreshold>
            <destination>
                <groupId>3170e7ec-7aaf-312d-0000-000000000000</groupId>
                <id>7a66690f-d2b9-3a5b-0000-000000000000</id>
                <type>PROCESSOR</type>
            </destination>
            <flowFileExpiration>0 sec</flowFileExpiration>
            <labelIndex>1</labelIndex>
            <loadBalanceCompression>DO_NOT_COMPRESS</loadBalanceCompression>
            <loadBalancePartitionAttribute></loadBalancePartitionAttribute>
            <loadBalanceStatus>LOAD_BALANCE_NOT_CONFIGURED</loadBalanceStatus>
            <loadBalanceStrategy>DO_NOT_LOAD_BALANCE</loadBalanceStrategy>
            <name></name>
            <selectedRelationships>sweden</selectedRelationships>
            <source>
                <groupId>3170e7ec-7aaf-312d-0000-000000000000</groupId>
                <id>6427b918-c3ea-3f32-0000-000000000000</id>
                <type>PROCESSOR</type>
            </source>
            <zIndex>0</zIndex>
        </connections>
        <connections>
            <id>eff56a50-46ac-37e1-0000-000000000000</id>
            <parentGroupId>3170e7ec-7aaf-312d-0000-000000000000</parentGroupId>
            <backPressureDataSizeThreshold>1 GB</backPressureDataSizeThreshold>
            <backPressureObjectThreshold>10000</backPressureObjectThreshold>
            <destination>
                <groupId>3170e7ec-7aaf-312d-0000-000000000000</groupId>
                <id>70ae378b-916c-3a6a-0000-000000000000</id>
                <type>PROCESSOR</type>
            </destination>
            <flowFileExpiration>0 sec</flowFileExpiration>
            <labelIndex>1</labelIndex>
            <loadBalanceCompression>DO_NOT_COMPRESS</loadBalanceCompression>
            <loadBalancePartitionAttribute></loadBalancePartitionAttribute>
            <loadBalanceStatus>LOAD_BALANCE_NOT_CONFIGURED</loadBalanceStatus>
            <loadBalanceStrategy>DO_NOT_LOAD_BALANCE</loadBalanceStrategy>
            <name></name>
            <selectedRelationships>success</selectedRelationships>
            <source>
                <groupId>3170e7ec-7aaf-312d-0000-000000000000</groupId>
                <id>2172debd-34bb-3e29-0000-000000000000</id>
                <type>PROCESSOR</type>
            </source>
            <zIndex>0</zIndex>
        </connections>
        <controllerServices>
            <id>79d8e812-7339-3c21-0000-000000000000</id>
            <parentGroupId>3170e7ec-7aaf-312d-0000-000000000000</parentGroupId>
            <bulletinLevel>WARN</bulletinLevel>
            <bundle>
                <artifact>nifi-record-serialization-services-nar</artifact>
                <group>org.apache.nifi</group>
                <version>1.24.0</version>
            </bundle>
            <comments></comments>
            <descriptors>
                <entry>
                    <key>schema-access-strategy</key>
                    <value>
                        <name>schema-access-strategy</name>
                    </value>
                </entry>
                <entry>
                    <key>schema-registry</key>
                    <value>
                        <dependencies>
                            <dependentValues>confluent-encoded</dependentValues>
                            <dependentValues>schema-name</dependentValues>
                            <dependentValues>hwx-schema-ref-attributes</dependentValues>
                            <dependentValues>hwx-content-encoded-schema</dependentValues>
                            <propertyName>schema-access-strategy</propertyName>
                        </dependencies>
                        <identifiesControllerService>org.apache.nifi.schemaregistry.services.SchemaRegistry</identifiesControllerService>
                        <name>schema-registry</name>
                    </value>
                </entry>
                <entry>
                    <key>schema-name</key>
                    <value>
                        <dependencies>
                            <dependentValues>schema-name</dependentValues>
                            <propertyName>schema-access-strategy</propertyName>
                        </dependencies>
                        <name>schema-name</name>
                    </value>
                </entry>
                <entry>
                    <key>schema-version</key>
                    <value>
                        <dependencies>
                            <dependentValues>schema-name</dependentValues>
                            <propertyName>schema-access-strategy</propertyName>
                        </dependencies>
                        <name>schema-version</name>
                    </value>
                </entry>
                <entry>
                    <key>schema-branch</key>
                    <value>
                        <dependencies>
                            <dependentValues>schema-name</dependentValues>
                            <propertyName>schema-access-strategy</propertyName>
                        </dependencies>
                        <name>schema-branch</name>
                    </value>
                </entry>
                <entry>
                    <key>schema-text</key>
                    <value>
                        <dependencies>
                            <dependentValues>schema-text-property</dependentValues>
                            <propertyName>schema-access-strategy</propertyName>
                        </dependencies>
                        <name>schema-text</name>
                    </value>
                </entry>
                <entry>
                    <key>csv-reader-csv-parser</key>
                    <value>
                        <name>csv-reader-csv-parser</name>
                    </value>
                </entry>
                <entry>
                    <key>Date Format</key>
                    <value>
                        <name>Date Format</name>
                    </value>
                </entry>
                <entry>
                    <key>Time Format</key>
                    <value>
                        <name>Time Format</name>
                    </value>
                </entry>
                <entry>
                    <key>Timestamp Format</key>
                    <value>
                        <name>Timestamp Format</name>
                    </value>
                </entry>
                <entry>
                    <key>CSV Format</key>
                    <value>
                        <name>CSV Format</name>
                    </value>
                </entry>
                <entry>
                    <key>Value Separator</key>
                    <value>
                        <dependencies>
                            <dependentValues>custom</dependentValues>
                            <propertyName>CSV Format</propertyName>
                        </dependencies>
                        <name>Value Separator</name>
                    </value>
                </entry>
                <entry>
                    <key>Record Separator</key>
                    <value>
                        <dependencies>
                            <dependentValues>custom</dependentValues>
                            <propertyName>CSV Format</propertyName>
                        </dependencies>
                        <name>Record Separator</name>
                    </value>
                </entry>
                <entry>
                    <key>Skip Header Line</key>
                    <value>
                        <name>Skip Header Line</name>
                    </value>
                </entry>
                <entry>
                    <key>ignore-csv-header</key>
                    <value>
                        <name>ignore-csv-header</name>
                    </value>
                </entry>
                <entry>
                    <key>Quote Character</key>
                    <value>
                        <dependencies>
                            <dependentValues>custom</dependentValues>
                            <propertyName>CSV Format</propertyName>
                        </dependencies>
                        <name>Quote Character</name>
                    </value>
                </entry>
                <entry>
                    <key>Escape Character</key>
                    <value>
                        <dependencies>
                            <dependentValues>custom</dependentValues>
                            <propertyName>CSV Format</propertyName>
                        </dependencies>
                        <name>Escape Character</name>
                    </value>
                </entry>
                <entry>
                    <key>Comment Marker</key>
                    <value>
                        <dependencies>
                            <dependentValues>custom</dependentValues>
                            <propertyName>CSV Format</propertyName>
                        </dependencies>
                        <name>Comment Marker</name>
                    </value>
                </entry>
                <entry>
                    <key>Null String</key>
                    <value>
                        <dependencies>
                            <dependentValues>custom</dependentValues>
                            <propertyName>CSV Format</propertyName>
                        </dependencies>
                        <name>Null String</name>
                    </value>
                </entry>
                <entry>
                    <key>Trim Fields</key>
                    <value>
                        <dependencies>
                            <dependentValues>custom</dependentValues>
                            <propertyName>CSV Format</propertyName>
                        </dependencies>
                        <name>Trim Fields</name>
                    </value>
                </entry>
                <entry>
                    <key>csvutils-character-set</key>
                    <value>
                        <name>csvutils-character-set</name>
                    </value>
                </entry>
                <entry>
                    <key>csvutils-allow-duplicate-header-names</key>
                    <value>
                        <dependencies>
                            <dependentValues>custom</dependentValues>
                            <propertyName>CSV Format</propertyName>
                        </dependencies>
                        <name>csvutils-allow-duplicate-header-names</name>
                    </value>
                </entry>
                <entry>
                    <key>Trim double quote</key>
                    <value>
                        <dependencies>
                            <dependentValues>rfc-4180</dependentValues>
                            <propertyName>CSV Format</propertyName>
                        </dependencies>
                        <name>Trim double quote</name>
                    </value>
                </entry>
            </descriptors>
            <name>CSVReader</name>
            <persistsState>false</persistsState>
            <properties>
                <entry>
                    <key>schema-access-strategy</key>
                    <value>csv-header-derived</value>
                </entry>
                <entry>
                    <key>schema-registry</key>
                </entry>
                <entry>
                    <key>schema-name</key>
                    <value>${schema.name}</value>
                </entry>
                <entry>
                    <key>schema-version</key>
                </entry>
                <entry>
                    <key>schema-branch</key>
                </entry>
                <entry>
                    <key>schema-text</key>
                    <value>{
  "type": "record",
  "name": "CleanedRecord",
  "fields": [
    { "name": "datetime", "type": "string" },
    { "name": "country_code", "type": "string" },
    { "name": "carbon_intensity_direct", "type": "double" },
    { "name": "cfe_percent", "type": "double" }
  ]
}
</value>
                </entry>
                <entry>
                    <key>csv-reader-csv-parser</key>
                    <value>commons-csv</value>
                </entry>
                <entry>
                    <key>Date Format</key>
                </entry>
                <entry>
                    <key>Time Format</key>
                </entry>
                <entry>
                    <key>Timestamp Format</key>
                </entry>
                <entry>
                    <key>CSV Format</key>
                    <value>custom</value>
                </entry>
                <entry>
                    <key>Value Separator</key>
                    <value>,</value>
                </entry>
                <entry>
                    <key>Record Separator</key>
                    <value>\n</value>
                </entry>
                <entry>
                    <key>Skip Header Line</key>
                    <value>true</value>
                </entry>
                <entry>
                    <key>ignore-csv-header</key>
                    <value>false</value>
                </entry>
                <entry>
                    <key>Quote Character</key>
                    <value>"</value>
                </entry>
                <entry>
                    <key>Escape Character</key>
                    <value>\</value>
                </entry>
                <entry>
                    <key>Comment Marker</key>
                </entry>
                <entry>
                    <key>Null String</key>
                </entry>
                <entry>
                    <key>Trim Fields</key>
                    <value>true</value>
                </entry>
                <entry>
                    <key>csvutils-character-set</key>
                    <value>UTF-8</value>
                </entry>
                <entry>
                    <key>csvutils-allow-duplicate-header-names</key>
                    <value>true</value>
                </entry>
                <entry>
                    <key>Trim double quote</key>
                    <value>true</value>
                </entry>
            </properties>
            <state>ENABLED</state>
            <type>org.apache.nifi.csv.CSVReader</type>
        </controllerServices>
        <controllerServices>
            <id>8c4db18f-96a7-3f0a-0000-000000000000</id>
            <parentGroupId>3170e7ec-7aaf-312d-0000-000000000000</parentGroupId>
            <bulletinLevel>WARN</bulletinLevel>
            <bundle>
                <artifact>nifi-registry-nar</artifact>
                <group>org.apache.nifi</group>
                <version>1.24.0</version>
            </bundle>
            <comments></comments>
            <descriptors>
                <entry>