<?xml version="1.0" encoding="UTF-8" standalone="yes"?>
<template encoding-version="1.3">
    <description></description>
    <groupId>d912766d-0196-1000-fefb-2dc42f803997</groupId>
    <name>data_acquisition_and_ingestion_flow</name>
    <snippet>
        <connections>
            <id>23ec43d6-a766-3731-0000-000000000000</id>
            <parentGroupId>d1c67044-d5a9-3c9d-0000-000000000000</parentGroupId>
            <versionedComponentId>23ec43d6-a766-3731-a99f-df6590a83cda</versionedComponentId>
            <backPressureDataSizeThreshold>1 GB</backPressureDataSizeThreshold>
            <backPressureObjectThreshold>10000</backPressureObjectThreshold>
            <destination>
                <groupId>d1c67044-d5a9-3c9d-0000-000000000000</groupId>
                <id>23b60543-d51e-3d5e-0000-000000000000</id>
                <type>PROCESSOR</type>
                <versionedComponentId>23b60543-d51e-3d5e-8bad-946f4c89b25c</versionedComponentId>
            </destination>
            <flowFileExpiration>0 sec</flowFileExpiration>
            <labelIndex>1</labelIndex>
            <loadBalanceCompression>DO_NOT_COMPRESS</loadBalanceCompression>
            <loadBalancePartitionAttribute></loadBalancePartitionAttribute>
            <loadBalanceStatus>LOAD_BALANCE_NOT_CONFIGURED</loadBalanceStatus>
            <loadBalanceStrategy>DO_NOT_LOAD_BALANCE</loadBalanceStrategy>
            <name></name>
            <selectedRelationships>success</selectedRelationships>
            <source>
                <groupId>d1c67044-d5a9-3c9d-0000-000000000000</groupId>
                <id>1e175638-2163-39eb-0000-000000000000</id>
                <type>PROCESSOR</type>
                <versionedComponentId>1e175638-2163-39eb-929d-7118f0b17477</versionedComponentId>
            </source>
            <zIndex>0</zIndex>
        </connections>
        <connections>
            <id>49294bb0-5085-3e15-0000-000000000000</id>
            <parentGroupId>d1c67044-d5a9-3c9d-0000-000000000000</parentGroupId>
            <versionedComponentId>49294bb0-5085-3e15-b994-917e8f7d3d86</versionedComponentId>
            <backPressureDataSizeThreshold>1 GB</backPressureDataSizeThreshold>
            <backPressureObjectThreshold>10000</backPressureObjectThreshold>
            <destination>
                <groupId>d1c67044-d5a9-3c9d-0000-000000000000</groupId>
                <id>e400b407-47ae-3c35-0000-000000000000</id>
                <type>PROCESSOR</type>
                <versionedComponentId>e400b407-47ae-3c35-8a79-bc22dc1462a4</versionedComponentId>
            </destination>
            <flowFileExpiration>0 sec</flowFileExpiration>
            <labelIndex>1</labelIndex>
            <loadBalanceCompression>DO_NOT_COMPRESS</loadBalanceCompression>
            <loadBalancePartitionAttribute></loadBalancePartitionAttribute>
            <loadBalanceStatus>LOAD_BALANCE_NOT_CONFIGURED</loadBalanceStatus>
            <loadBalanceStrategy>DO_NOT_LOAD_BALANCE</loadBalanceStrategy>
            <name></name>
            <selectedRelationships>merged</selectedRelationships>
            <source>
                <groupId>d1c67044-d5a9-3c9d-0000-000000000000</groupId>
                <id>01e7b49a-5a37-3a38-0000-000000000000</id>
                <type>PROCESSOR</type>
                <versionedComponentId>01e7b49a-5a37-3a38-a72c-5aa4ba1323fc</versionedComponentId>
            </source>
            <zIndex>0</zIndex>
        </connections>
        <connections>
            <id>504a896e-15b6-323d-0000-000000000000</id>
            <parentGroupId>d1c67044-d5a9-3c9d-0000-000000000000</parentGroupId>
            <versionedComponentId>504a896e-15b6-323d-bebc-9ed7ff6b6ea6</versionedComponentId>
            <backPressureDataSizeThreshold>1 GB</backPressureDataSizeThreshold>
            <backPressureObjectThreshold>10000</backPressureObjectThreshold>
            <destination>
                <groupId>d1c67044-d5a9-3c9d-0000-000000000000</groupId>
                <id>23b60543-d51e-3d5e-0000-000000000000</id>
                <type>PROCESSOR</type>
                <versionedComponentId>23b60543-d51e-3d5e-8bad-946f4c89b25c</versionedComponentId>
            </destination>
            <flowFileExpiration>0 sec</flowFileExpiration>
            <labelIndex>1</labelIndex>
            <loadBalanceCompression>DO_NOT_COMPRESS</loadBalanceCompression>
            <loadBalancePartitionAttribute></loadBalancePartitionAttribute>
            <loadBalanceStatus>LOAD_BALANCE_NOT_CONFIGURED</loadBalanceStatus>
            <loadBalanceStrategy>DO_NOT_LOAD_BALANCE</loadBalanceStrategy>
            <name></name>
            <selectedRelationships>success</selectedRelationships>
            <source>
                <groupId>d1c67044-d5a9-3c9d-0000-000000000000</groupId>
                <id>beff55be-b7b7-3e45-0000-000000000000</id>
                <type>PROCESSOR</type>
                <versionedComponentId>beff55be-b7b7-3e45-826d-9c1908865afd</versionedComponentId>
            </source>
            <zIndex>0</zIndex>
        </connections>
        <connections>
            <id>8cc6af85-d7a3-3b0a-0000-000000000000</id>
            <parentGroupId>d1c67044-d5a9-3c9d-0000-000000000000</parentGroupId>
            <versionedComponentId>8cc6af85-d7a3-3b0a-90e5-fbd2e9b7836b</versionedComponentId>
            <backPressureDataSizeThreshold>1 GB</backPressureDataSizeThreshold>
            <backPressureObjectThreshold>10000</backPressureObjectThreshold>
            <destination>
                <groupId>d1c67044-d5a9-3c9d-0000-000000000000</groupId>
                <id>861e3d06-076a-3dc4-0000-000000000000</id>
                <type>PROCESSOR</type>
                <versionedComponentId>861e3d06-076a-3dc4-91f2-1db8b44c9fca</versionedComponentId>
            </destination>
            <flowFileExpiration>0 sec</flowFileExpiration>
            <labelIndex>1</labelIndex>
            <loadBalanceCompression>DO_NOT_COMPRESS</loadBalanceCompression>
            <loadBalancePartitionAttribute></loadBalancePartitionAttribute>
            <loadBalanceStatus>LOAD_BALANCE_NOT_CONFIGURED</loadBalanceStatus>
            <loadBalanceStrategy>DO_NOT_LOAD_BALANCE</loadBalanceStrategy>
            <name></name>
            <selectedRelationships>success</selectedRelationships>
            <source>
                <groupId>d1c67044-d5a9-3c9d-0000-000000000000</groupId>
                <id>beff55be-b7b7-3e45-0000-000000000000</id>
                <type>PROCESSOR</type>
                <versionedComponentId>beff55be-b7b7-3e45-826d-9c1908865afd</versionedComponentId>
            </source>
            <zIndex>0</zIndex>
        </connections>
        <connections>
            <id>9a88036b-0644-3312-0000-000000000000</id>
            <parentGroupId>d1c67044-d5a9-3c9d-0000-000000000000</parentGroupId>
            <versionedComponentId>9a88036b-0644-3312-b106-c49c603249bb</versionedComponentId>
            <backPressureDataSizeThreshold>1 GB</backPressureDataSizeThreshold>
            <backPressureObjectThreshold>10000</backPressureObjectThreshold>
            <destination>
                <groupId>d1c67044-d5a9-3c9d-0000-000000000000</groupId>
                <id>1811109b-3e3a-3fa9-0000-000000000000</id>
                <type>PROCESSOR</type>
                <versionedComponentId>1811109b-3e3a-3fa9-b304-2e98b515349f</versionedComponentId>
            </destination>
            <flowFileExpiration>0 sec</flowFileExpiration>
            <labelIndex>1</labelIndex>
            <loadBalanceCompression>DO_NOT_COMPRESS</loadBalanceCompression>
            <loadBalancePartitionAttribute></loadBalancePartitionAttribute>
            <loadBalanceStatus>LOAD_BALANCE_NOT_CONFIGURED</loadBalanceStatus>
            <loadBalanceStrategy>DO_NOT_LOAD_BALANCE</loadBalanceStrategy>
            <name></name>
            <selectedRelationships>sweden</selectedRelationships>
            <source>
                <groupId>d1c67044-d5a9-3c9d-0000-000000000000</groupId>
                <id>2e3e00f9-0f9e-3ed2-0000-000000000000</id>
                <type>PROCESSOR</type>
                <versionedComponentId>2e3e00f9-0f9e-3ed2-b409-68195014cc4b</versionedComponentId>
            </source>
            <zIndex>0</zIndex>
        </connections>
        <connections>
            <id>b3783d78-9fa0-3afd-0000-000000000000</id>
            <parentGroupId>d1c67044-d5a9-3c9d-0000-000000000000</parentGroupId>
            <versionedComponentId>b3783d78-9fa0-3afd-9f29-229223e1a132</versionedComponentId>
            <backPressureDataSizeThreshold>1 GB</backPressureDataSizeThreshold>
            <backPressureObjectThreshold>10000</backPressureObjectThreshold>
            <destination>
                <groupId>d1c67044-d5a9-3c9d-0000-000000000000</groupId>
                <id>861e3d06-076a-3dc4-0000-000000000000</id>
                <type>PROCESSOR</type>
                <versionedComponentId>861e3d06-076a-3dc4-91f2-1db8b44c9fca</versionedComponentId>
            </destination>
            <flowFileExpiration>0 sec</flowFileExpiration>
            <labelIndex>1</labelIndex>
            <loadBalanceCompression>DO_NOT_COMPRESS</loadBalanceCompression>
            <loadBalancePartitionAttribute></loadBalancePartitionAttribute>
            <loadBalanceStatus>LOAD_BALANCE_NOT_CONFIGURED</loadBalanceStatus>
            <loadBalanceStrategy>DO_NOT_LOAD_BALANCE</loadBalanceStrategy>
            <name></name>
            <selectedRelationships>success</selectedRelationships>
            <source>
                <groupId>d1c67044-d5a9-3c9d-0000-000000000000</groupId>
                <id>1e175638-2163-39eb-0000-000000000000</id>
                <type>PROCESSOR</type>
                <versionedComponentId>1e175638-2163-39eb-929d-7118f0b17477</versionedComponentId>
            </source>
            <zIndex>0</zIndex>
        </connections>
        <connections>
            <id>bdbfe7d3-bb84-3571-0000-000000000000</id>
            <parentGroupId>d1c67044-d5a9-3c9d-0000-000000000000</parentGroupId>
            <versionedComponentId>bdbfe7d3-bb84-3571-a4ca-a8eca57899da</versionedComponentId>
            <backPressureDataSizeThreshold>1 GB</backPressureDataSizeThreshold>
            <backPressureObjectThreshold>10000</backPressureObjectThreshold>
            <destination>
                <groupId>d1c67044-d5a9-3c9d-0000-000000000000</groupId>
                <id>420c732c-f234-36d1-0000-000000000000</id>
                <type>PROCESSOR</type>
                <versionedComponentId>420c732c-f234-36d1-af31-e680e3ea24df</versionedComponentId>
            </destination>
            <flowFileExpiration>0 sec</flowFileExpiration>
            <labelIndex>1</labelIndex>
            <loadBalanceCompression>DO_NOT_COMPRESS</loadBalanceCompression>
            <loadBalancePartitionAttribute></loadBalancePartitionAttribute>
            <loadBalanceStatus>LOAD_BALANCE_NOT_CONFIGURED</loadBalanceStatus>
            <loadBalanceStrategy>DO_NOT_LOAD_BALANCE</loadBalanceStrategy>
            <name></name>
            <selectedRelationships>italy</selectedRelationships>
            <source>
                <groupId>d1c67044-d5a9-3c9d-0000-000000000000</groupId>
                <id>2e3e00f9-0f9e-3ed2-0000-000000000000</id>
                <type>PROCESSOR</type>
                <versionedComponentId>2e3e00f9-0f9e-3ed2-b409-68195014cc4b</versionedComponentId>
            </source>
            <zIndex>0</zIndex>
        </connections>
        <connections>
            <id>cc9a1323-8efc-3067-0000-000000000000</id>
            <parentGroupId>d1c67044-d5a9-3c9d-0000-000000000000</parentGroupId>
            <versionedComponentId>cc9a1323-8efc-3067-a51d-6efe744a4ca1</versionedComponentId>
            <backPressureDataSizeThreshold>1 GB</backPressureDataSizeThreshold>
            <backPressureObjectThreshold>10000</backPressureObjectThreshold>
            <destination>
                <groupId>d1c67044-d5a9-3c9d-0000-000000000000</groupId>
                <id>1e175638-2163-39eb-0000-000000000000</id>
                <type>PROCESSOR</type>
                <versionedComponentId>1e175638-2163-39eb-929d-7118f0b17477</versionedComponentId>
            </destination>
            <flowFileExpiration>0 sec</flowFileExpiration>
            <labelIndex>1</labelIndex>
            <loadBalanceCompression>DO_NOT_COMPRESS</loadBalanceCompression>
            <loadBalancePartitionAttribute></loadBalancePartitionAttribute>
            <loadBalanceStatus>LOAD_BALANCE_NOT_CONFIGURED</loadBalanceStatus>
            <loadBalanceStrategy>DO_NOT_LOAD_BALANCE</loadBalanceStrategy>
            <name></name>
            <selectedRelationships>merged</selectedRelationships>
            <source>
                <groupId>d1c67044-d5a9-3c9d-0000-000000000000</groupId>
                <id>01e7b49a-5a37-3a38-0000-000000000000</id>
                <type>PROCESSOR</type>
                <versionedComponentId>01e7b49a-5a37-3a38-a72c-5aa4ba1323fc</versionedComponentId>
            </source>
            <zIndex>0</zIndex>
        </connections>
        <connections>
            <id>d35f7a17-781a-3705-0000-000000000000</id>
            <parentGroupId>d1c67044-d5a9-3c9d-0000-000000000000</parentGroupId>
            <versionedComponentId>d35f7a17-781a-3705-aaa6-7b9d3e04dfbd</versionedComponentId>
            <backPressureDataSizeThreshold>1 GB</backPressureDataSizeThreshold>
            <backPressureObjectThreshold>10000</backPressureObjectThreshold>
            <destination>
                <groupId>d1c67044-d5a9-3c9d-0000-000000000000</groupId>
                <id>beff55be-b7b7-3e45-0000-000000000000</id>
                <type>PROCESSOR</type>
                <versionedComponentId>beff55be-b7b7-3e45-826d-9c1908865afd</versionedComponentId>
            </destination>
            <flowFileExpiration>0 sec</flowFileExpiration>
            <labelIndex>1</labelIndex>
            <loadBalanceCompression>DO_NOT_COMPRESS</loadBalanceCompression>
            <loadBalancePartitionAttribute></loadBalancePartitionAttribute>
            <loadBalanceStatus>LOAD_BALANCE_NOT_CONFIGURED</loadBalanceStatus>
            <loadBalanceStrategy>DO_NOT_LOAD_BALANCE</loadBalanceStrategy>
            <name></name>
            <selectedRelationships>success</selectedRelationships>
            <source>
                <groupId>d1c67044-d5a9-3c9d-0000-000000000000</groupId>
                <id>e400b407-47ae-3c35-0000-000000000000</id>
                <type>PROCESSOR</type>
                <versionedComponentId>e400b407-47ae-3c35-8a79-bc22dc1462a4</versionedComponentId>
            </source>
            <zIndex>0</zIndex>
        </connections>
        <connections>
            <id>edf39165-dffb-3bf6-0000-000000000000</id>
            <parentGroupId>d1c67044-d5a9-3c9d-0000-000000000000</parentGroupId>
            <versionedComponentId>edf39165-dffb-3bf6-a154-00ddd539897e</versionedComponentId>
            <backPressureDataSizeThreshold>1 GB</backPressureDataSizeThreshold>
            <backPressureObjectThreshold>10000</backPressureObjectThreshold>
            <destination>
                <groupId>d1c67044-d5a9-3c9d-0000-000000000000</groupId>
                <id>01e7b49a-5a37-3a38-0000-000000000000</id>
                <type>PROCESSOR</type>
                <versionedComponentId>01e7b49a-5a37-3a38-a72c-5aa4ba1323fc</versionedComponentId>
            </destination>
            <flowFileExpiration>0 sec</flowFileExpiration>
            <labelIndex>1</labelIndex>
            <loadBalanceCompression>DO_NOT_COMPRESS</loadBalanceCompression>
            <loadBalancePartitionAttribute></loadBalancePartitionAttribute>
            <loadBalanceStatus>LOAD_BALANCE_NOT_CONFIGURED</loadBalanceStatus>
            <loadBalanceStrategy>DO_NOT_LOAD_BALANCE</loadBalanceStrategy>
            <name></name>
            <selectedRelationships>success</selectedRelationships>
            <source>
                <groupId>d1c67044-d5a9-3c9d-0000-000000000000</groupId>
                <id>1811109b-3e3a-3fa9-0000-000000000000</id>
                <type>PROCESSOR</type>
                <versionedComponentId>1811109b-3e3a-3fa9-b304-2e98b515349f</versionedComponentId>
            </source>
            <zIndex>0</zIndex>
        </connections>
        <connections>
            <id>f58e0151-f8a3-37ea-0000-000000000000</id>
            <parentGroupId>d1c67044-d5a9-3c9d-0000-000000000000</parentGroupId>
            <versionedComponentId>f58e0151-f8a3-37ea-a355-a36f5a2f8600</versionedComponentId>
            <backPressureDataSizeThreshold>1 GB</backPressureDataSizeThreshold>
            <backPressureObjectThreshold>10000</backPressureObjectThreshold>
            <destination>
                <groupId>d1c67044-d5a9-3c9d-0000-000000000000</groupId>
                <id>2e3e00f9-0f9e-3ed2-0000-000000000000</id>
                <type>PROCESSOR</type>
                <versionedComponentId>2e3e00f9-0f9e-3ed2-b409-68195014cc4b</versionedComponentId>
            </destination>
            <flowFileExpiration>0 sec</flowFileExpiration>
            <labelIndex>1</labelIndex>
            <loadBalanceCompression>DO_NOT_COMPRESS</loadBalanceCompression>
            <loadBalancePartitionAttribute></loadBalancePartitionAttribute>
            <loadBalanceStatus>LOAD_BALANCE_NOT_CONFIGURED</loadBalanceStatus>
            <loadBalanceStrategy>DO_NOT_LOAD_BALANCE</loadBalanceStrategy>
            <name></name>
            <selectedRelationships>success</selectedRelationships>
            <source>
                <groupId>d1c67044-d5a9-3c9d-0000-000000000000</groupId>
                <id>7f21cfb0-d2bc-39ac-0000-000000000000</id>
                <type>PROCESSOR</type>
                <versionedComponentId>7f21cfb0-d2bc-39ac-86af-059753823376</versionedComponentId>
            </source>
            <zIndex>0</zIndex>
        </connections>
        <connections>
            <id>f5d3829c-5f37-3819-0000-000000000000</id>
            <parentGroupId>d1c67044-d5a9-3c9d-0000-000000000000</parentGroupId>
            <versionedComponentId>f5d3829c-5f37-3819-97c0-8aacd1ab60a1</versionedComponentId>
            <backPressureDataSizeThreshold>1 GB</backPressureDataSizeThreshold>
            <backPressureObjectThreshold>10000</backPressureObjectThreshold>
            <destination>
                <groupId>d1c67044-d5a9-3c9d-0000-000000000000</groupId>
                <id>7f21cfb0-d2bc-39ac-0000-000000000000</id>
                <type>PROCESSOR</type>
                <versionedComponentId>7f21cfb0-d2bc-39ac-86af-059753823376</versionedComponentId>
            </destination>
            <flowFileExpiration>0 sec</flowFileExpiration>
            <labelIndex>1</labelIndex>
            <loadBalanceCompression>DO_NOT_COMPRESS</loadBalanceCompression>
            <loadBalancePartitionAttribute></loadBalancePartitionAttribute>
            <loadBalanceStatus>LOAD_BALANCE_NOT_CONFIGURED</loadBalanceStatus>
            <loadBalanceStrategy>DO_NOT_LOAD_BALANCE</loadBalanceStrategy>
            <name></name>
            <selectedRelationships>success</selectedRelationships>
            <source>
                <groupId>d1c67044-d5a9-3c9d-0000-000000000000</groupId>
                <id>d1734ebb-4bb8-3656-0000-000000000000</id>
                <type>PROCESSOR</type>
                <versionedComponentId>d1734ebb-4bb8-3656-a39f-9e4118679978</versionedComponentId>
            </source>
            <zIndex>0</zIndex>
        </connections>
        <connections>
            <id>f8b3e933-1005-340b-0000-000000000000</id>
            <parentGroupId>d1c67044-d5a9-3c9d-0000-000000000000</parentGroupId>
            <versionedComponentId>f8b3e933-1005-340b-b37d-041137006c04</versionedComponentId>
            <backPressureDataSizeThreshold>1 GB</backPressureDataSizeThreshold>
            <backPressureObjectThreshold>10000</backPressureObjectThreshold>
            <destination>
                <groupId>d1c67044-d5a9-3c9d-0000-000000000000</groupId>
                <id>01e7b49a-5a37-3a38-0000-000000000000</id>
                <type>PROCESSOR</type>
                <versionedComponentId>01e7b49a-5a37-3a38-a72c-5aa4ba1323fc</versionedComponentId>
            </destination>
            <flowFileExpiration>0 sec</flowFileExpiration>
            <labelIndex>1</labelIndex>
            <loadBalanceCompression>DO_NOT_COMPRESS</loadBalanceCompression>
            <loadBalancePartitionAttribute></loadBalancePartitionAttribute>
            <loadBalanceStatus>LOAD_BALANCE_NOT_CONFIGURED</loadBalanceStatus>
            <loadBalanceStrategy>DO_NOT_LOAD_BALANCE</loadBalanceStrategy>
            <name></name>
            <selectedRelationships>success</selectedRelationships>
            <source>
                <groupId>d1c67044-d5a9-3c9d-0000-000000000000</groupId>
                <id>420c732c-f234-36d1-0000-000000000000</id>
                <type>PROCESSOR</type>
                <versionedComponentId>420c732c-f234-36d1-af31-e680e3ea24df</versionedComponentId>
            </source>
            <zIndex>0</zIndex>
        </connections>
        <controllerServices>
            <id>73e160d8-e689-3aba-0000-000000000000</id>
            <parentGroupId>d1c67044-d5a9-3c9d-0000-000000000000</parentGroupId>
            <versionedComponentId>73e160d8-e689-3aba-b52f-f0e15f34d32a</versionedComponentId>
            <bulletinLevel>WARN</bulletinLevel>
            <bundle>
                <artifact>nifi-record-serialization-services-nar</artifact>
                <group>org.apache.nifi</group>
                <version>1.24.0</version>
            </bundle>
            <comments></comments>
            <descriptors>
                <entry>
                    <key>Schema Write Strategy</key>
                    <value>
                        <name>Schema Write Strategy</name>
                    </value>
                </entry>
                <entry>
                    <key>schema-cache</key>
                    <value>
                        <identifiesControllerService>org.apache.nifi.serialization.RecordSchemaCacheService</identifiesControllerService>
                        <name>schema-cache</name>
                    </value>
                </entry>
                <entry>
                    <key>schema-protocol-version</key>
                    <value>
                        <dependencies>
                            <dependentValues>hwx-schema-ref-attributes</dependentValues>
                            <dependentValues>hwx-content-encoded-schema</dependentValues>
                            <propertyName>Schema Write Strategy</propertyName>
                        </dependencies>
                        <name>schema-protocol-version</name>
                    </value>
                </entry>
                <entry>
                    <key>schema-access-strategy</key>
                    <value>
                        <name>schema-access-strategy</name>
                    </value>
                </entry>
                <entry>
                    <key>schema-registry</key>
                    <value>
                        <dependencies>
                            <dependentValues>confluent-encoded</dependentValues>
                            <dependentValues>schema-name</dependentValues>
                            <dependentValues>hwx-schema-ref-attributes</dependentValues>
                            <dependentValues>hwx-content-encoded-schema</dependentValues>
                            <propertyName>schema-access-strategy</propertyName>
                        </dependencies>
                        <identifiesControllerService>org.apache.nifi.schemaregistry.services.SchemaRegistry</identifiesControllerService>
                        <name>schema-registry</name>
                    </value>
                </entry>
                <entry>
                    <key>schema-name</key>
                    <value>
                        <dependencies>
                            <dependentValues>schema-name</dependentValues>
                            <propertyName>schema-access-strategy</propertyName>
                        </dependencies>
                        <name>schema-name</name>
                    </value>
                </entry>
                <entry>
                    <key>schema-version</key>
                    <value>
                        <dependencies>
                            <dependentValues>schema-name</dependentValues>
                            <propertyName>schema-access-strategy</propertyName>
                        </dependencies>
                        <name>schema-version</name>
                    </value>
                </entry>
                <entry>
                    <key>schema-branch</key>
                    <value>
                        <dependencies>
                            <dependentValues>schema-name</dependentValues>
                            <propertyName>schema-access-strategy</propertyName>
                        </dependencies>
                        <name>schema-branch</name>
                    </value>
                </entry>
                <entry>
                    <key>schema-text</key>
                    <value>
                        <dependencies>
                            <dependentValues>schema-text-property</dependentValues>
                            <propertyName>schema-access-strategy</propertyName>
                        </dependencies>
                        <name>schema-text</name>
                    </value>
                </entry>
                <entry>
                    <key>Date Format</key>
                    <value>
                        <name>Date Format</name>
                    </value>
                </entry>
                <entry>
                    <key>Time Format</key>
                    <value>
                        <name>Time Format</name>
                    </value>
                </entry>
                <entry>
                    <key>Timestamp Format</key>
                    <value>
                        <name>Timestamp Format</name>
                    </value>
                </entry>
                <entry>
                    <key>CSV Format</key>
                    <value>
                        <name>CSV Format</name>
                    </value>
                </entry>
                <entry>
                    <key>Value Separator</key>
                    <value>
                        <dependencies>
                            <dependentValues>custom</dependentValues>
                            <propertyName>CSV Format</propertyName>
                        </dependencies>
                        <name>Value Separator</name>
                    </value>
                </entry>
                <entry>
                    <key>Include Header Line</key>
                    <value>
                        <name>Include Header Line</name>
                    </value>
                </entry>
                <entry>
                    <key>Quote Character</key>
                    <value>
                        <dependencies>
                            <dependentValues>custom</dependentValues>
                            <propertyName>CSV Format</propertyName>
                        </dependencies>
                        <name>Quote Character</name>
                    </value>
                </entry>
                <entry>
                    <key>Escape Character</key>
                    <value>
                        <dependencies>
                            <dependentValues>custom</dependentValues>
                            <propertyName>CSV Format</propertyName>
                        </dependencies>
                        <name>Escape Character</name>
                    </value>
                </entry>
                <entry>
                    <key>Comment Marker</key>
                    <value>
                        <dependencies>
                            <dependentValues>custom</dependentValues>
                            <propertyName>CSV Format</propertyName>
                        </dependencies>
                        <name>Comment Marker</name>
                    </value>
                </entry>
                <entry>
                    <key>Null String</key>
                    <value>
                        <dependencies>
                            <dependentValues>custom</dependentValues>
                            <propertyName>CSV Format</propertyName>
                        </dependencies>
                        <name>Null String</name>
                    </value>
                </entry>
                <entry>
                    <key>Trim Fields</key>
                    <value>
                        <dependencies>
                            <dependentValues>custom</dependentValues>
                            <propertyName>CSV Format</propertyName>
                        </dependencies>
                        <name>Trim Fields</name>
                    </value>
                </entry>
                <entry>
                    <key>Quote Mode</key>
                    <value>
                        <dependencies>
                            <dependentValues>custom</dependentValues>
                            <propertyName>CSV Format</propertyName>
                        </dependencies>
                        <name>Quote Mode</name>
                    </value>
                </entry>
                <entry>
                    <key>Record Separator</key>
                    <value>
                        <dependencies>
                            <dependentValues>custom</dependentValues>
                            <propertyName>CSV Format</propertyName>
                        </dependencies>
                        <name>Record Separator</name>
                    </value>
                </entry>
                <entry>