<?xml version="1.0" encoding="UTF-8" standalone="yes"?>
<template encoding-version="1.3">
    <description></description>
    <groupId>d912766d-0196-1000-fefb-2dc42f803997</groupId>
    <name>data_acquisition_and_ingestion_flow</name>
    <snippet>
        <connections>
            <id>329a8f57-a3f0-39c7-0000-000000000000</id>
            <parentGroupId>d1c67044-d5a9-3c9d-0000-000000000000</parentGroupId>
            <backPressureDataSizeThreshold>1 GB</backPressureDataSizeThreshold>
            <backPressureObjectThreshold>10000</backPressureObjectThreshold>
            <destination>
                <groupId>d1c67044-d5a9-3c9d-0000-000000000000</groupId>
                <id>464c09c5-2445-336e-0000-000000000000</id>
                <type>PROCESSOR</type>
            </destination>
            <flowFileExpiration>0 sec</flowFileExpiration>
            <labelIndex>1</labelIndex>
            <loadBalanceCompression>DO_NOT_COMPRESS</loadBalanceCompression>
            <loadBalancePartitionAttribute></loadBalancePartitionAttribute>
            <loadBalanceStatus>LOAD_BALANCE_NOT_CONFIGURED</loadBalanceStatus>
            <loadBalanceStrategy>DO_NOT_LOAD_BALANCE</loadBalanceStrategy>
            <name></name>
            <selectedRelationships>sweden</selectedRelationships>
            <source>
                <groupId>d1c67044-d5a9-3c9d-0000-000000000000</groupId>
                <id>24a9d389-70e4-3d3d-0000-000000000000</id>
                <type>PROCESSOR</type>
            </source>
            <zIndex>0</zIndex>
        </connections>
        <connections>
            <id>36d32ac6-9c98-304c-0000-000000000000</id>
            <parentGroupId>d1c67044-d5a9-3c9d-0000-000000000000</parentGroupId>
            <backPressureDataSizeThreshold>1 GB</backPressureDataSizeThreshold>
            <backPressureObjectThreshold>10000</backPressureObjectThreshold>
            <destination>
                <groupId>d1c67044-d5a9-3c9d-0000-000000000000</groupId>
                <id>7a315c81-0744-3ff3-0000-000000000000</id>
                <type>PROCESSOR</type>
            </destination>
            <flowFileExpiration>0 sec</flowFileExpiration>
            <labelIndex>1</labelIndex>
            <loadBalanceCompression>DO_NOT_COMPRESS</loadBalanceCompression>
            <loadBalancePartitionAttribute></loadBalancePartitionAttribute>
            <loadBalanceStatus>LOAD_BALANCE_NOT_CONFIGURED</loadBalanceStatus>
            <loadBalanceStrategy>DO_NOT_LOAD_BALANCE</loadBalanceStrategy>
            <name></name>
            <selectedRelationships>success</selectedRelationships>
            <source>
                <groupId>d1c67044-d5a9-3c9d-0000-000000000000</groupId>
                <id>464c09c5-2445-336e-0000-000000000000</id>
                <type>PROCESSOR</type>
            </source>
            <zIndex>0</zIndex>
        </connections>
        <connections>
            <id>3e5f5c37-07d8-30af-0000-000000000000</id>
            <parentGroupId>d1c67044-d5a9-3c9d-0000-000000000000</parentGroupId>
            <backPressureDataSizeThreshold>1 GB</backPressureDataSizeThreshold>
            <backPressureObjectThreshold>10000</backPressureObjectThreshold>
            <destination>
                <groupId>d1c67044-d5a9-3c9d-0000-000000000000</groupId>
                <id>03d04ea1-cf2f-38ec-0000-000000000000</id>
                <type>PROCESSOR</type>
            </destination>
            <flowFileExpiration>0 sec</flowFileExpiration>
            <labelIndex>1</labelIndex>
            <loadBalanceCompression>DO_NOT_COMPRESS</loadBalanceCompression>
            <loadBalancePartitionAttribute></loadBalancePartitionAttribute>
            <loadBalanceStatus>LOAD_BALANCE_NOT_CONFIGURED</loadBalanceStatus>
            <loadBalanceStrategy>DO_NOT_LOAD_BALANCE</loadBalanceStrategy>
            <name></name>
            <selectedRelationships>success</selectedRelationships>
            <source>
                <groupId>d1c67044-d5a9-3c9d-0000-000000000000</groupId>
                <id>0d8ecd5e-90ab-3f49-0000-000000000000</id>
                <type>PROCESSOR</type>
            </source>
            <zIndex>0</zIndex>
        </connections>
        <connections>
            <id>6a240cc2-e1fc-38c1-0000-000000000000</id>
            <parentGroupId>d1c67044-d5a9-3c9d-0000-000000000000</parentGroupId>
            <backPressureDataSizeThreshold>1 GB</backPressureDataSizeThreshold>
            <backPressureObjectThreshold>10000</backPressureObjectThreshold>
            <destination>
                <groupId>d1c67044-d5a9-3c9d-0000-000000000000</groupId>
                <id>2472afce-5925-342b-0000-000000000000</id>
                <type>PROCESSOR</type>
            </destination>
            <flowFileExpiration>0 sec</flowFileExpiration>
            <labelIndex>1</labelIndex>
            <loadBalanceCompression>DO_NOT_COMPRESS</loadBalanceCompression>
            <loadBalancePartitionAttribute></loadBalancePartitionAttribute>
            <loadBalanceStatus>LOAD_BALANCE_NOT_CONFIGURED</loadBalanceStatus>
            <loadBalanceStrategy>DO_NOT_LOAD_BALANCE</loadBalanceStrategy>
            <name></name>
            <selectedRelationships>success</selectedRelationships>
            <source>
                <groupId>d1c67044-d5a9-3c9d-0000-000000000000</groupId>
                <id>92a18c01-e33c-39cb-0000-000000000000</id>
                <type>PROCESSOR</type>
            </source>
            <zIndex>0</zIndex>
        </connections>
        <connections>
            <id>93d4e5c9-44c2-3f3d-0000-000000000000</id>
            <parentGroupId>d1c67044-d5a9-3c9d-0000-000000000000</parentGroupId>
            <backPressureDataSizeThreshold>1 GB</backPressureDataSizeThreshold>
            <backPressureObjectThreshold>10000</backPressureObjectThreshold>
            <destination>
                <groupId>d1c67044-d5a9-3c9d-0000-000000000000</groupId>
                <id>24a9d389-70e4-3d3d-0000-000000000000</id>
                <type>PROCESSOR</type>
            </destination>
            <flowFileExpiration>0 sec</flowFileExpiration>
            <labelIndex>1</labelIndex>
            <loadBalanceCompression>DO_NOT_COMPRESS</loadBalanceCompression>
            <loadBalancePartitionAttribute></loadBalancePartitionAttribute>
            <loadBalanceStatus>LOAD_BALANCE_NOT_CONFIGURED</loadBalanceStatus>
            <loadBalanceStrategy>DO_NOT_LOAD_BALANCE</loadBalanceStrategy>
            <name></name>
            <selectedRelationships>success</selectedRelationships>
            <source>
                <groupId>d1c67044-d5a9-3c9d-0000-000000000000</groupId>
                <id>2472afce-5925-342b-0000-000000000000</id>
                <type>PROCESSOR</type>
            </source>
            <zIndex>0</zIndex>
        </connections>
        <connections>
            <id>a72318c2-c387-3596-0000-000000000000</id>
            <parentGroupId>d1c67044-d5a9-3c9d-0000-000000000000</parentGroupId>
            <backPressureDataSizeThreshold>1 GB</backPressureDataSizeThreshold>
            <backPressureObjectThreshold>10000</backPressureObjectThreshold>
            <destination>
                <groupId>d1c67044-d5a9-3c9d-0000-000000000000</groupId>
                <id>1e519b76-8d95-3081-0000-000000000000</id>
                <type>PROCESSOR</type>
            </destination>
            <flowFileExpiration>0 sec</flowFileExpiration>
            <labelIndex>1</labelIndex>
            <loadBalanceCompression>DO_NOT_COMPRESS</loadBalanceCompression>
            <loadBalancePartitionAttribute></loadBalancePartitionAttribute>
            <loadBalanceStatus>LOAD_BALANCE_NOT_CONFIGURED</loadBalanceStatus>
            <loadBalanceStrategy>DO_NOT_LOAD_BALANCE</loadBalanceStrategy>
            <name></name>
            <selectedRelationships>italy</selectedRelationships>
            <source>
                <groupId>d1c67044-d5a9-3c9d-0000-000000000000</groupId>
                <id>24a9d389-70e4-3d3d-0000-000000000000</id>
                <type>PROCESSOR</type>
            </source>
            <zIndex>0</zIndex>
        </connections>
        <connections>
            <id>b048b6ed-01ea-3821-0000-000000000000</id>
            <parentGroupId>d1c67044-d5a9-3c9d-0000-000000000000</parentGroupId>
            <backPressureDataSizeThreshold>1 GB</backPressureDataSizeThreshold>
            <backPressureObjectThreshold>10000</backPressureObjectThreshold>
            <destination>
                <groupId>d1c67044-d5a9-3c9d-0000-000000000000</groupId>
                <id>03d04ea1-cf2f-38ec-0000-000000000000</id>
                <type>PROCESSOR</type>
            </destination>
            <flowFileExpiration>0 sec</flowFileExpiration>
            <labelIndex>1</labelIndex>
            <loadBalanceCompression>DO_NOT_COMPRESS</loadBalanceCompression>
            <loadBalancePartitionAttribute></loadBalancePartitionAttribute>
            <loadBalanceStatus>LOAD_BALANCE_NOT_CONFIGURED</loadBalanceStatus>
            <loadBalanceStrategy>DO_NOT_LOAD_BALANCE</loadBalanceStrategy>
            <name></name>
            <selectedRelationships>success</selectedRelationships>
            <source>
                <groupId>d1c67044-d5a9-3c9d-0000-000000000000</groupId>
                <id>d1630a57-172a-371f-0000-000000000000</id>
                <type>PROCESSOR</type>
            </source>
            <zIndex>0</zIndex>
        </connections>
        <connections>
            <id>c702a94b-0f5b-3b1f-0000-000000000000</id>
            <parentGroupId>d1c67044-d5a9-3c9d-0000-000000000000</parentGroupId>
            <backPressureDataSizeThreshold>1 GB</backPressureDataSizeThreshold>
            <backPressureObjectThreshold>10000</backPressureObjectThreshold>
            <destination>
                <groupId>d1c67044-d5a9-3c9d-0000-000000000000</groupId>
                <id>3126013f-8050-3a65-0000-000000000000</id>
                <type>PROCESSOR</type>
            </destination>
            <flowFileExpiration>0 sec</flowFileExpiration>
            <labelIndex>1</labelIndex>
            <loadBalanceCompression>DO_NOT_COMPRESS</loadBalanceCompression>
            <loadBalancePartitionAttribute></loadBalancePartitionAttribute>
            <loadBalanceStatus>LOAD_BALANCE_NOT_CONFIGURED</loadBalanceStatus>
            <loadBalanceStrategy>DO_NOT_LOAD_BALANCE</loadBalanceStrategy>
            <name></name>
            <selectedRelationships>merged</selectedRelationships>
            <source>
                <groupId>d1c67044-d5a9-3c9d-0000-000000000000</groupId>
                <id>7a315c81-0744-3ff3-0000-000000000000</id>
                <type>PROCESSOR</type>
            </source>
            <zIndex>0</zIndex>
        </connections>
        <connections>
            <id>cff5bf9c-d041-3eb9-0000-000000000000</id>
            <parentGroupId>d1c67044-d5a9-3c9d-0000-000000000000</parentGroupId>
            <backPressureDataSizeThreshold>1 GB</backPressureDataSizeThreshold>
            <backPressureObjectThreshold>10000</backPressureObjectThreshold>
            <destination>
                <groupId>d1c67044-d5a9-3c9d-0000-000000000000</groupId>
                <id>0d8ecd5e-90ab-3f49-0000-000000000000</id>
                <type>PROCESSOR</type>
            </destination>
            <flowFileExpiration>0 sec</flowFileExpiration>
            <labelIndex>1</labelIndex>
            <loadBalanceCompression>DO_NOT_COMPRESS</loadBalanceCompression>
            <loadBalancePartitionAttribute></loadBalancePartitionAttribute>
            <loadBalanceStatus>LOAD_BALANCE_NOT_CONFIGURED</loadBalanceStatus>
            <loadBalanceStrategy>DO_NOT_LOAD_BALANCE</loadBalanceStrategy>
            <name></name>
            <selectedRelationships>success</selectedRelationships>
            <source>
                <groupId>d1c67044-d5a9-3c9d-0000-000000000000</groupId>
                <id>3126013f-8050-3a65-0000-000000000000</id>
                <type>PROCESSOR</type>
            </source>
            <zIndex>0</zIndex>
        </connections>
        <connections>
            <id>e5ab68f7-1bf9-33ab-0000-000000000000</id>
            <parentGroupId>d1c67044-d5a9-3c9d-0000-000000000000</parentGroupId>
            <backPressureDataSizeThreshold>1 GB</backPressureDataSizeThreshold>
            <backPressureObjectThreshold>10000</backPressureObjectThreshold>
            <destination>
                <groupId>d1c67044-d5a9-3c9d-0000-000000000000</groupId>
                <id>7a315c81-0744-3ff3-0000-000000000000</id>
                <type>PROCESSOR</type>
            </destination>
            <flowFileExpiration>0 sec</flowFileExpiration>
            <labelIndex>1</labelIndex>
            <loadBalanceCompression>DO_NOT_COMPRESS</loadBalanceCompression>
            <loadBalancePartitionAttribute></loadBalancePartitionAttribute>
            <loadBalanceStatus>LOAD_BALANCE_NOT_CONFIGURED</loadBalanceStatus>
            <loadBalanceStrategy>DO_NOT_LOAD_BALANCE</loadBalanceStrategy>
            <name></name>
            <selectedRelationships>success</selectedRelationships>
            <source>
                <groupId>d1c67044-d5a9-3c9d-0000-000000000000</groupId>
                <id>1e519b76-8d95-3081-0000-000000000000</id>
                <type>PROCESSOR</type>
            </source>
            <zIndex>0</zIndex>
        </connections>
        <connections>
            <id>f8864cfb-8eb8-3f14-0000-000000000000</id>
            <parentGroupId>d1c67044-d5a9-3c9d-0000-000000000000</parentGroupId>
            <backPressureDataSizeThreshold>1 GB</backPressureDataSizeThreshold>
            <backPressureObjectThreshold>10000</backPressureObjectThreshold>
            <destination>
                <groupId>d1c67044-d5a9-3c9d-0000-000000000000</groupId>
                <id>d1630a57-172a-371f-0000-000000000000</id>
                <type>PROCESSOR</type>
            </destination>
            <flowFileExpiration>0 sec</flowFileExpiration>
            <labelIndex>1</labelIndex>
            <loadBalanceCompression>DO_NOT_COMPRESS</loadBalanceCompression>
            <loadBalancePartitionAttribute></loadBalancePartitionAttribute>
            <loadBalanceStatus>LOAD_BALANCE_NOT_CONFIGURED</loadBalanceStatus>
            <loadBalanceStrategy>DO_NOT_LOAD_BALANCE</loadBalanceStrategy>
            <name></name>
            <selectedRelationships>merged</selectedRelationships>
            <source>
                <groupId>d1c67044-d5a9-3c9d-0000-000000000000</groupId>
                <id>7a315c81-0744-3ff3-0000-000000000000</id>
                <type>PROCESSOR</type>
            </source>
            <zIndex>0</zIndex>
        </connections>
        <controllerServices>
            <id>6d606b55-7d88-3144-0000-000000000000</id>
            <parentGroupId>d1c67044-d5a9-3c9d-0000-000000000000</parentGroupId>
            <bulletinLevel>WARN</bulletinLevel>
            <bundle>
                <artifact>nifi-registry-nar</artifact>
                <group>org.apache.nifi</group>
                <version>1.24.0</version>
            </bundle>
            <comments></comments>
            <descriptors>
                <entry>
                    <key>avro-reg-validated-field-names</key>
                    <value>
                        <name>avro-reg-validated-field-names</name>
                    </value>
                </entry>
                <entry>
                    <key>CleanedEmissions</key>
                    <value>
                        <name>CleanedEmissions</name>
                    </value>
                </entry>
            </descriptors>
            <name>AvroSchemaRegistry</name>
            <persistsState>false</persistsState>
            <properties>
                <entry>
                    <key>avro-reg-validated-field-names</key>
                    <value>true</value>
                </entry>
                <entry>
                    <key>CleanedEmissions</key>
                    <value>{
  "type": "record",
  "name": "CleanedEmissions",
  "fields": [
    { "name": "datetime", "type": "string" },
    { "name": "country_code", "type": "string" },
    { "name": "carbon_intensity_direct", "type": "double" },
    { "name": "cfe_percent", "type": "double" }
  ]
}</value>
                </entry>
            </properties>
            <state>ENABLED</state>
            <type>org.apache.nifi.schemaregistry.services.AvroSchemaRegistry</type>
        </controllerServices>
        <controllerServices>
            <id>b10b7ebc-2406-327a-0000-000000000000</id>
            <parentGroupId>d1c67044-d5a9-3c9d-0000-000000000000</parentGroupId>
            <bulletinLevel>WARN</bulletinLevel>
            <bundle>
                <artifact>nifi-record-serialization-services-nar</artifact>
                <group>org.apache.nifi</group>
                <version>1.24.0</version>
            </bundle>
            <comments></comments>
            <descriptors>
                <entry>
                    <key>Schema Write Strategy</key>
                    <value>
                        <name>Schema Write Strategy</name>
                    </value>
                </entry>
                <entry>
                    <key>schema-cache</key>
                    <value>
                        <identifiesControllerService>org.apache.nifi.serialization.RecordSchemaCacheService</identifiesControllerService>
                        <name>schema-cache</name>
                    </value>
                </entry>
                <entry>
                    <key>schema-protocol-version</key>
                    <value>
                        <dependencies>
                            <dependentValues>hwx-schema-ref-attributes</dependentValues>
                            <dependentValues>hwx-content-encoded-schema</dependentValues>
                            <propertyName>Schema Write Strategy</propertyName>
                        </dependencies>
                        <name>schema-protocol-version</name>
                    </value>
                </entry>
                <entry>
                    <key>schema-access-strategy</key>
                    <value>
                        <name>schema-access-strategy</name>
                    </value>
                </entry>
                <entry>
                    <key>schema-registry</key>
                    <value>
                        <dependencies>
                            <dependentValues>confluent-encoded</dependentValues>
                            <dependentValues>schema-name</dependentValues>
                            <dependentValues>hwx-schema-ref-attributes</dependentValues>
                            <dependentValues>hwx-content-encoded-schema</dependentValues>
                            <propertyName>schema-access-strategy</propertyName>
                        </dependencies>
                        <identifiesControllerService>org.apache.nifi.schemaregistry.services.SchemaRegistry</identifiesControllerService>
                        <name>schema-registry</name>
                    </value>
                </entry>
                <entry>
                    <key>schema-name</key>
                    <value>
                        <dependencies>
                            <dependentValues>schema-name</dependentValues>
                            <propertyName>schema-access-strategy</propertyName>
                        </dependencies>
                        <name>schema-name</name>
                    </value>
                </entry>
                <entry>
                    <key>schema-version</key>
                    <value>
                        <dependencies>
                            <dependentValues>schema-name</dependentValues>
                            <propertyName>schema-access-strategy</propertyName>
                        </dependencies>
                        <name>schema-version</name>
                    </value>
                </entry>
                <entry>
                    <key>schema-branch</key>
                    <value>
                        <dependencies>
                            <dependentValues>schema-name</dependentValues>
                            <propertyName>schema-access-strategy</propertyName>
                        </dependencies>
                        <name>schema-branch</name>
                    </value>
                </entry>
                <entry>
                    <key>schema-text</key>
                    <value>
                        <dependencies>
                            <dependentValues>schema-text-property</dependentValues>
                            <propertyName>schema-access-strategy</propertyName>
                        </dependencies>
                        <name>schema-text</name>
                    </value>
                </entry>
                <entry>
                    <key>Date Format</key>
                    <value>
                        <name>Date Format</name>
                    </value>
                </entry>
                <entry>
                    <key>Time Format</key>
                    <value>
                        <name>Time Format</name>
                    </value>
                </entry>
                <entry>
                    <key>Timestamp Format</key>
                    <value>
                        <name>Timestamp Format</name>
                    </value>
                </entry>
                <entry>
                    <key>CSV Format</key>
                    <value>
                        <name>CSV Format</name>
                    </value>
                </entry>
                <entry>
                    <key>Value Separator</key>
                    <value>
                        <dependencies>
                            <dependentValues>custom</dependentValues>
                            <propertyName>CSV Format</propertyName>
                        </dependencies>
                        <name>Value Separator</name>
                    </value>
                </entry>
                <entry>
                    <key>Include Header Line</key>
                    <value>
                        <name>Include Header Line</name>
                    </value>
                </entry>
                <entry>
                    <key>Quote Character</key>
                    <value>
                        <dependencies>
                            <dependentValues>custom</dependentValues>
                            <propertyName>CSV Format</propertyName>
                        </dependencies>
                        <name>Quote Character</name>
                    </value>
                </entry>
                <entry>
                    <key>Escape Character</key>
                    <value>
                        <dependencies>
                            <dependentValues>custom</dependentValues>
                            <propertyName>CSV Format</propertyName>
                        </dependencies>
                        <name>Escape Character</name>
                    </value>
                </entry>
                <entry>
                    <key>Comment Marker</key>
                    <value>
                        <dependencies>
                            <dependentValues>custom</dependentValues>
                            <propertyName>CSV Format</propertyName>
                        </dependencies>
                        <name>Comment Marker</name>
                    </value>
                </entry>
                <entry>
                    <key>Null String</key>
                    <value>
                        <dependencies>
                            <dependentValues>custom</dependentValues>
                            <propertyName>CSV Format</propertyName>
                        </dependencies>
                        <name>Null String</name>
                    </value>
                </entry>
                <entry>
                    <key>Trim Fields</key>
                    <value>
                        <dependencies>
                            <dependentValues>custom</dependentValues>
                            <propertyName>CSV Format</propertyName>
                        </dependencies>
                        <name>Trim Fields</name>
                    </value>
                </entry>
                <entry>
                    <key>Quote Mode</key>
                    <value>
                        <dependencies>
                            <dependentValues>custom</dependentValues>
                            <propertyName>CSV Format</propertyName>
                        </dependencies>
                        <name>Quote Mode</name>
                    </value>
                </entry>
                <entry>
                    <key>Record Separator</key>
                    <value>
                        <dependencies>
                            <dependentValues>custom</dependentValues>
                            <propertyName>CSV Format</propertyName>
                        </dependencies>
                        <name>Record Separator</name>
                    </value>
                </entry>
                <entry>
                    <key>Include Trailing Delimiter</key>
                    <value>
                        <dependencies>
                            <dependentValues>custom</dependentValues>
                            <propertyName>CSV Format</propertyName>
                        </dependencies>
                        <name>Include Trailing Delimiter</name>
                    </value>
                </entry>
                <entry>
                    <key>csvutils-character-set</key>
                    <value>
                        <name>csvutils-character-set</name>
                    </value>
                </entry>
            </descriptors>
            <name>CSVRecordSetWriter</name>
            <persistsState>false</persistsState>
            <properties>
                <entry>
                    <key>Schema Write Strategy</key>
                    <value>no-schema</value>
                </entry>
                <entry>
                    <key>schema-cache</key>
                </entry>
                <entry>
                    <key>schema-protocol-version</key>
                    <value>1</value>
                </entry>
                <entry>
                    <key>schema-access-strategy</key>
                    <value>schema-name</value>
                </entry>
                <entry>
                    <key>schema-registry</key>
                    <value>6d606b55-7d88-3144-0000-000000000000</value>
                </entry>
                <entry>
                    <key>schema-name</key>
                    <value>CleanedEmissions</value>
                </entry>
                <entry>
                    <key>schema-version</key>
                </entry>
                <entry>
                    <key>schema-branch</key>
                </entry>
                <entry>
                    <key>schema-text</key>
                    <value>{
  "type": "record",
  "name": "CleanedEmissions",
  "fields": [
    { "name": "datetime", "type": "string" },
    { "name": "country_code", "type": "string" },
    { "name": "carbon_intensity_direct", "type": "double" },
    { "name": "cfe_percent", "type": "double" }
  ]
}</value>
                </entry>
                <entry>
                    <key>Date Format</key>
                </entry>
                <entry>
                    <key>Time Format</key>
                </entry>
                <entry>
                    <key>Timestamp Format</key>
                </entry>
                <entry>
                    <key>CSV Format</key>
                    <value>custom</value>
                </entry>
                <entry>
                    <key>Value Separator</key>
                    <value>,</value>
                </entry>
                <entry>
                    <key>Include Header Line</key>
                    <value>true</value>
                </entry>
                <entry>
                    <key>Quote Character</key>
                    <value>"</value>
                </entry>
                <entry>
                    <key>Escape Character</key>
                    <value>\</value>
                </entry>
                <entry>
                    <key>Comment Marker</key>
                </entry>
                <entry>
                    <key>Null String</key>
                </entry>
                <entry>
                    <key>Trim Fields</key>
                    <value>true</value>
                </entry>
                <entry>
                    <key>Quote Mode</key>
                    <value>MINIMAL</value>
                </entry>
                <entry>
                    <key>Record Separator</key>
                    <value>\n</value>
                </entry>
                <entry>
                    <key>Include Trailing Delimiter</key>
                    <value>false</value>
                </entry>
                <entry>
                    <key>csvutils-character-set</key>
                    <value>UTF-8</value>
                </entry>
            </properties>
            <state>ENABLED</state>
            <type>org.apache.nifi.csv.CSVRecordSetWriter</type>
        </controllerServices>
        <controllerServices>
            <id>c6848ec5-f2bd-3c3b-0000-000000000000</id>
            <parentGroupId>d1c67044-d5a9-3c9d-0000-000000000000</parentGroupId>
            <bulletinLevel>WARN</bulletinLevel>
            <bundle>
                <artifact>nifi-record-serialization-services-nar</artifact>
                <group>org.apache.nifi</group>
                <version>1.24.0</version>
            </bundle>
            <comments></comments>
            <descriptors>
                <entry>